 &time_control
 start_year                          = 2015, 2017, 2017,
 start_month                         = 03,   06,   06,
 start_day                           = 31,   27,   27,
 start_hour                          = 00,   06,   06,
 start_minute                        = 00,   00,   00,
 start_second                        = 00,   00,   00,
 end_year                            = 2015, 2017, 2017,
 end_month                           = 04,   06,   06,
 end_day                             = 04,   29,   29,
 end_hour                            = 18,   12,   12,
 end_minute                          = 00,   00,   00,
 end_second                          = 00,   00,   00,
 interval_seconds                    = 21600
 input_from_file                     = .true.,.true.,.true.,
 history_interval                    = 60,   60,   60,
 frames_per_outfile                  = 3, 1000, 1000,
 restart                             = .false.,
 restart_interval                    = 5000,
 auxinput5_interval_m                = 0, 60, 60
 io_form_history                     = 2
 io_form_restart                     = 2
 io_form_input                       = 2
 io_form_boundary                    = 2
 io_form_auxinput4                   = 0
 io_form_auxinput5                   = 0
 debug_level                         = 00
 iofields_filename                   = '/home/fkaragulian/WRFV3/test/em_real/INCLUDE_VARIABLES.txt'
 ignore_iofields_warning = .true.,
 /

 &domains
 time_step                           = 60,
 time_step_fract_num                 = 0,
 time_step_fract_den                 = 1,
 max_dom                             = 1,
 e_we                                = 187, 125, 106,
 e_sn                                = 184, 140, 109,
 e_vert                              = 45, 45, 45,
 dx                                  = 12000, 12000,  12000,
 dy                                  = 12000, 12000,  12000,
 p_top_requested                     = 5000,
 num_metgrid_levels                  = 27,
 num_metgrid_soil_levels             = 4,
 grid_id                             = 1,     2,     3,
 parent_id                           = 0,     1,     2,
 i_parent_start                      = 1,     30,    30,
 j_parent_start                      = 1,     20,    30,
 parent_grid_ratio                   = 1,     3,     3,
 parent_time_step_ratio              = 1,     3,     3,
 feedback                            = 1,
 smooth_option                       = 0
 /

 &physics
 mp_physics                          = 2,     2,     2,
 progn                               = 0,     0,     0,
 naer                                = 1e9
 ra_lw_physics                       = 1,     1,     1,
 ra_sw_physics                       = 2,     2,     2,
 radt                                = 30,    10,    10,
 sf_sfclay_physics                   = 1,     1,     1,
 sf_surface_physics                  = 2,     2,     2,
 bl_pbl_physics                      = 1,     1,     1,
 bldt                                = 1,     0,     0,
 cu_physics                          = 5,     5,     0,
 cudt                                = 1,     1,     1,
 isfflx                              = 1,
 ifsnow                              = 1,
 icloud                              = 1,
 surface_input_source                = 1,
 num_soil_layers                     = 4,
 num_land_cat                        = 21,
 sf_urban_physics                    = 0,     0,     0,
 maxiens                             = 1,
 maxens                              = 3,
 maxens2                             = 3,
 maxens3                             = 16,
 ensdim                              = 144,
 cu_rad_feedback                     = .true.,
 /

 &fdda
 /

 &dynamics
 w_damping                           = 1,
 diff_opt                            = 1,      1,      1,
 km_opt                              = 4,      4,      4,
 diff_6th_opt                        = 0,      0,      0,
 diff_6th_factor                     = 0.12,   0.12,   0.12,
 base_temp                           = 290.
 damp_opt                            = 0,
 zdamp                               = 5000.,  5000.,  5000.,
 dampcoef                            = 0.2,    0.2,    0.2
 khdif                               = 0,      0,      0,
 kvdif                               = 0,      0,      0,
 non_hydrostatic                     = .true., .true., .true.,
 moist_adv_opt                       = 1,      1,      1,     
 scalar_adv_opt                      = 1,      1,      1,     
 chem_adv_opt                        = 1,      1,      1,     
 /

 &bdy_control
 spec_bdy_width                      = 5,
 spec_zone                           = 1,
 relax_zone                          = 4,
 specified                           = .true., .false.,.false.,
 nested                              = .false., .true., .true.,
 /

 &grib2
 /

&chem
 chem_opt                            = 401,112,
 dust_opt                            = 1,
 kemit                               = 10,
 bioemdt                             = 0,
 photdt                              = 30,
 chemdt                              = 10,
 io_style_emissions                  = 1,
 emiss_opt                           = 8,          8,
 emiss_opt_vol                       = 0,          0,
 emiss_ash_hgt                       = 20000.,
 chem_in_opt                         = 0,          0,
 phot_opt                            = 0,          3,
 gas_drydep_opt                      = 0,          0,
 aer_drydep_opt                      = 1,          1,
 bio_emiss_opt                       = 0,          0,
 ne_area                             = 0,
 dmsemis_opt                         = 0,
 seas_opt                            = 0,
 depo_fact                           = 0.25,
 gas_bc_opt                          = 0,          0,
 gas_ic_opt                          = 0,          0,
 aer_bc_opt                          = 1,          1,
 aer_ic_opt                          = 1,          1,
 gaschem_onoff                       = 0,          0,
 aerchem_onoff                       = 0,          0,
 wetscav_onoff                       = 0,          0,
 cldchem_onoff                       = 0,          0,
 vertmix_onoff                       = 1,          1,
 chem_conv_tr                        = 0,          0,
 conv_tr_wetscav                     = 0,          0,
 conv_tr_aqchem                      = 0,          0,
 biomass_burn_opt                    = 0,          0,
 plumerisefire_frq                   = 30,         0,
 have_bcs_chem                       = .false., .false., .false.,
 aer_ra_feedback                     = 0,
 aer_op_opt                          = 1,1,
 opt_pars_out                        = 1,
 diagnostic_chem                     = 1,1
/


 &namelist_quilt
 nio_tasks_per_group = 0,
 nio_groups = 1,
 /
