&share
 wrf_core = 'ARW',
 max_dom = 1,
 start_date = '2015-03-31_00:00:00','2015-03-31_00:00:00',
 end_date   = '2015-04-04_00:00:00','2015-03-31_00:00:00'
 
 interval_seconds = 21600
 io_form_geogrid = 2,
/

&geogrid
 parent_id         =   1,1,2,
 parent_grid_ratio =   1,3,3,
 i_parent_start    =   1,  65,31,95,
 j_parent_start    =   1,  65,40,90,
 e_we              =   220, 187,250,127,106,
 e_sn              =   193, 184,172,142,109,
 !
 !!!!!!!!!!!!!!!!!!!!!!!!!!!! IMPORTANT NOTE !!!!!!!!!!!!!!!!!!!!!!!!!!!!
 ! This namelist is specific for use with the lowest resolution option for
 ! each field in the static geographic tar file.  It is mandatory to use
 ! the below settings for geog_data_res.
 !!!!!!!!!!!!!!!!!!!!!!!!!!!! IMPORTANT NOTE !!!!!!!!!!!!!!!!!!!!!!!!!!!!
 !
 geog_data_res     = '30s','30s', '30s'
dx = 4000,
 dy = 4000,
 map_proj =  'lambert',
 ref_lat   =  24,
 ref_lon   = 54,
 truelat1  = 24,
 truelat2  = 24,
 stand_lon = 54,
 geog_data_path = '/home/fkaragulian/WRF_UAE/geog/'
/

&ungrib
 out_format = 'WPS',
 prefix = 'FILE',
/

&metgrid
 fg_name = 'FILE'
 io_form_metgrid = 2, 
/
